Version 4
SHEET 1 4340 772
WIRE 2864 -288 2688 -288
WIRE 2992 -288 2864 -288
WIRE 3152 -288 2992 -288
WIRE 3344 -288 3152 -288
WIRE 2864 -240 2864 -288
WIRE 3152 -240 3152 -288
WIRE 2992 -224 2992 -288
WIRE 3424 -224 3264 -224
WIRE 3344 -160 3344 -288
WIRE 3264 -144 3264 -224
WIRE 3312 -144 3264 -144
WIRE 3424 -128 3424 -224
WIRE 3424 -128 3376 -128
WIRE 2864 -112 2864 -160
WIRE 2992 -112 2992 -160
WIRE 3152 -112 3152 -160
WIRE 3312 -112 3152 -112
WIRE -400 -80 -704 -80
WIRE -320 -80 -400 -80
WIRE -176 -80 -240 -80
WIRE -96 -80 -176 -80
WIRE 64 -80 -16 -80
WIRE 144 -80 64 -80
WIRE 256 -80 224 -80
WIRE 400 -80 336 -80
WIRE 560 -80 400 -80
WIRE 656 -80 560 -80
WIRE 816 -80 720 -80
WIRE 992 -80 816 -80
WIRE 1056 -80 992 -80
WIRE 1200 -80 1136 -80
WIRE 1312 -80 1200 -80
WIRE 1440 -80 1376 -80
WIRE 1616 -80 1520 -80
WIRE 1712 -80 1616 -80
WIRE 2032 -80 1776 -80
WIRE 2176 -80 2032 -80
WIRE 3152 -64 3152 -112
WIRE 3344 -48 3344 -96
WIRE -704 -32 -704 -80
WIRE -176 -16 -176 -80
WIRE 64 -16 64 -80
WIRE 400 -16 400 -80
WIRE 560 -16 560 -80
WIRE 816 -16 816 -80
WIRE 992 -16 992 -80
WIRE 1616 -16 1616 -80
WIRE 2032 -16 2032 -80
WIRE 2176 -16 2176 -80
WIRE 1200 0 1200 -80
WIRE 2752 16 2608 16
WIRE 2896 16 2832 16
WIRE 352 64 240 64
WIRE 3152 64 3152 16
WIRE 2032 112 2032 64
WIRE 2432 112 2032 112
WIRE 2608 112 2608 16
WIRE 2608 112 2512 112
WIRE 816 128 816 64
WIRE 1616 128 1616 64
WIRE 2688 128 2688 -288
WIRE -704 144 -704 48
WIRE -176 144 -176 48
WIRE 64 144 64 48
WIRE 400 144 400 80
WIRE 560 144 560 48
WIRE 992 144 992 48
WIRE 1200 144 1200 64
WIRE 2608 144 2608 112
WIRE 2656 144 2608 144
WIRE 2896 160 2896 16
WIRE 2896 160 2720 160
WIRE 2944 160 2896 160
WIRE 2176 176 2176 64
WIRE 2656 176 2176 176
WIRE 2032 224 2032 112
WIRE 2176 224 2176 176
WIRE 2688 240 2688 192
WIRE 816 288 816 208
WIRE 1616 288 1616 208
WIRE -400 304 -400 -80
WIRE -400 304 -528 304
WIRE 560 304 560 224
WIRE -528 336 -528 304
WIRE 1872 368 1872 192
WIRE 2032 368 2032 288
WIRE 2032 368 1872 368
WIRE 2176 368 2176 304
WIRE 2176 368 2032 368
WIRE 3424 368 3424 -128
WIRE 3424 368 2176 368
WIRE -400 384 -400 304
WIRE -352 384 -400 384
WIRE 16 384 -128 384
WIRE 16 432 16 384
WIRE -528 448 -528 416
WIRE -352 448 -528 448
WIRE -32 448 -128 448
WIRE -528 480 -528 448
WIRE -352 512 -448 512
WIRE 96 512 -128 512
WIRE 240 512 240 64
WIRE 240 512 176 512
WIRE 304 512 240 512
WIRE 448 512 384 512
WIRE 448 560 448 512
WIRE -80 576 -128 576
WIRE -528 592 -528 560
WIRE -448 592 -448 512
WIRE -448 592 -528 592
WIRE -528 624 -528 592
WIRE -400 656 -400 384
WIRE -80 656 -80 576
WIRE -80 656 -400 656
WIRE -448 704 -448 592
WIRE -32 704 -32 448
WIRE -32 704 -448 704
WIRE -528 752 -528 688
FLAG 64 144 0
FLAG 400 144 0
FLAG 992 144 0
FLAG -704 144 0
FLAG 560 304 0
FLAG 1200 144 0
FLAG -176 144 0
FLAG -528 752 0
FLAG 16 432 0
FLAG 448 560 0
FLAG 3152 64 0
FLAG 2688 240 0
FLAG 3344 -48 0
FLAG 2864 -112 0
FLAG 2992 -112 0
FLAG 1616 288 0
FLAG 2944 160 GEN
IOPIN 2944 160 Out
FLAG 816 288 0
SYMBOL res 0 -96 R90
WINDOW 0 0 56 VBottom 2
WINDOW 3 32 56 VTop 2
SYMATTR InstName R2
SYMATTR Value 33
SYMBOL res 240 -96 R90
WINDOW 0 0 56 VBottom 2
WINDOW 3 32 56 VTop 2
SYMATTR InstName RL1
SYMATTR Value 5
SYMBOL cap 48 -16 R0
SYMATTR InstName C2
SYMATTR Value 3.6µ
SYMBOL cap 976 -16 R0
SYMATTR InstName C3
SYMATTR Value 0.3µ
SYMBOL ind 240 -64 R270
WINDOW 0 32 56 VTop 2
WINDOW 3 5 56 VBottom 2
SYMATTR InstName L1
SYMATTR Value 100µ
SYMBOL diode 656 -64 R270
WINDOW 0 32 32 VTop 2
WINDOW 3 0 32 VBottom 2
SYMATTR InstName D1
SYMBOL nmos 352 -16 R0
SYMATTR InstName T1
SYMATTR Value 2N7002
SYMBOL voltage -704 -48 R0
WINDOW 123 0 0 Left 0
WINDOW 39 0 0 Left 0
SYMATTR InstName Vcc
SYMATTR Value 5
SYMBOL res 1152 -96 R90
WINDOW 0 0 56 VBottom 2
WINDOW 3 32 56 VTop 2
SYMATTR InstName R3
SYMATTR Value 33k
SYMBOL zener 1376 -96 R90
WINDOW 0 -50 37 VBottom 2
WINDOW 3 -42 34 VTop 2
SYMATTR InstName D3
SYMATTR Value MMBZ24VALY
SYMBOL cap -192 -16 R0
SYMATTR InstName C1
SYMATTR Value 4µ
SYMBOL res -224 -96 R90
WINDOW 0 0 56 VBottom 2
WINDOW 3 32 56 VTop 2
SYMATTR InstName R1
SYMATTR Value 33
SYMBOL Misc\\NE555 -240 480 M0
WINDOW 0 7 -202 Center 2
WINDOW 3 6 -166 Center 2
SYMATTR InstName U1
SYMBOL cap -544 624 R0
WINDOW 0 -52 8 Left 2
WINDOW 3 -69 45 Left 2
SYMATTR InstName CT1
SYMATTR Value 0.01µ
SYMBOL res -512 576 R180
WINDOW 0 36 76 Left 2
WINDOW 3 36 40 Left 2
SYMATTR InstName RT2
SYMATTR Value 680
SYMBOL res 192 496 R90
WINDOW 0 0 56 VBottom 2
WINDOW 3 32 56 VTop 2
SYMATTR InstName R7
SYMATTR Value 180
SYMBOL res 400 496 R90
WINDOW 0 0 56 VBottom 2
WINDOW 3 32 56 VTop 2
SYMATTR InstName R8
SYMATTR Value 330
SYMBOL res -512 432 R180
WINDOW 0 36 76 Left 2
WINDOW 3 36 40 Left 2
SYMATTR InstName RT1
SYMATTR Value 100
SYMBOL zener 544 48 M180
WINDOW 0 24 64 Left 2
WINDOW 3 28 -11 Left 2
SYMATTR InstName D4
SYMATTR Value BZX84B36VLY
SYMBOL cap 1184 0 R0
SYMATTR InstName C5
SYMATTR Value 0.3µ
SYMBOL res 544 128 R0
SYMATTR InstName R_D4
SYMATTR Value 1.5
SYMBOL voltage 1424 -80 M90
WINDOW 123 0 0 Left 0
WINDOW 39 0 0 Left 0
WINDOW 0 -57 101 VLeft 2
WINDOW 3 53 126 VLeft 2
SYMATTR InstName VRND
SYMATTR Value SINE(0 100mV 500k)
SYMBOL cap 1776 -96 R90
WINDOW 0 -35 36 VBottom 2
WINDOW 3 -30 36 VTop 2
SYMATTR InstName C4
SYMATTR Value 0.01µ
SYMBOL res 2016 -32 R0
SYMATTR InstName R5
SYMATTR Value 10k
SYMBOL OpAmps\\MAX4230 3344 -192 R0
SYMATTR InstName U2
SYMBOL OpAmps\\MAX4230 2688 96 R0
SYMATTR InstName U3
SYMBOL res 3136 -80 R0
SYMATTR InstName R6
SYMATTR Value 33k
SYMBOL res 3136 -256 R0
SYMATTR InstName R9
SYMATTR Value 100k
SYMBOL res 2160 208 R0
SYMATTR InstName R10
SYMATTR Value 100k
SYMBOL res 2528 96 R90
WINDOW 0 0 56 VBottom 2
WINDOW 3 32 56 VTop 2
SYMATTR InstName R11
SYMATTR Value 33k
SYMBOL res 2192 80 R180
WINDOW 0 -58 78 Left 2
WINDOW 3 -52 35 Left 2
SYMATTR InstName R12
SYMATTR Value 33k
SYMBOL res 2848 0 R90
WINDOW 0 0 56 VBottom 2
WINDOW 3 32 56 VTop 2
SYMATTR InstName R13
SYMATTR Value 100k
SYMBOL cap 2016 224 R0
SYMATTR InstName C6
SYMATTR Value 0.01µ
SYMBOL voltage 2864 -256 R0
WINDOW 123 0 0 Left 0
WINDOW 39 0 0 Left 0
SYMATTR InstName Vcc1
SYMATTR Value 3.3
SYMBOL cap 2976 -224 R0
SYMATTR InstName C7
SYMATTR Value 0.1µ
SYMBOL res 1600 80 M180
WINDOW 0 36 76 Left 2
WINDOW 3 36 40 Left 2
SYMATTR InstName R14
SYMATTR Value 100k
SYMBOL res 1600 224 M180
WINDOW 0 36 76 Left 2
WINDOW 3 36 40 Left 2
SYMATTR InstName R4
SYMATTR Value 3.3k
SYMBOL res 1856 96 R0
SYMATTR InstName R18
SYMATTR Value 100k
SYMBOL res 800 80 M180
WINDOW 0 36 76 Left 2
WINDOW 3 36 40 Left 2
SYMATTR InstName R15
SYMATTR Value 100k
SYMBOL res 800 224 M180
WINDOW 0 36 76 Left 2
WINDOW 3 36 40 Left 2
SYMATTR InstName R16
SYMATTR Value 3.3k
TEXT -704 -128 Left 2 !.tran 200ms
TEXT -256 -168 Left 2 ;V_ringing < 3 mV
TEXT 1104 -192 Left 2 ;V_noise < 50 uV
